280
Generated using CrysX
Si  0  0  0
Si  0  2.174  2.174
Si  2.174  0  2.174
Si  2.174  2.174  0
C  1.087  1.087  1.087
C  1.087  3.261  3.261
C  3.261  1.087  3.261
C  3.261  3.261  1.087
Si  4.34800004959106  0  0
Si  0  4.34800004959106  0
Si  0  0  4.34800004959106
Si  4.34800004959106  4.34800004959106  0
Si  0  4.34800004959106  4.34800004959106
Si  4.34800004959106  0  4.34800004959106
Si  4.34800004959106  4.34800004959106  4.34800004959106
Si  4.34800004959106  2.17400002479553  2.17400002479553
Si  0  6.52200031280518  2.17400002479553
Si  0  2.17400002479553  6.52200031280518
Si  4.34800004959106  6.52200031280518  2.17400002479553
Si  0  6.52200031280518  6.52200031280518
Si  4.34800004959106  2.17400002479553  6.52200031280518
Si  4.34800004959106  6.52200031280518  6.52200031280518
Si  6.52200031280518  0  2.17400002479553
Si  2.17400002479553  4.34800004959106  2.17400002479553
Si  2.17400002479553  0  6.52200031280518
Si  6.52200031280518  4.34800004959106  2.17400002479553
Si  2.17400002479553  4.34800004959106  6.52200031280518
Si  6.52200031280518  0  6.52200031280518
Si  6.52200031280518  4.34800004959106  6.52200031280518
Si  6.52200031280518  2.17400002479553  0
Si  2.17400002479553  6.52200031280518  0
Si  2.17400002479553  2.17400002479553  4.34800004959106
Si  6.52200031280518  6.52200031280518  0
Si  2.17400002479553  6.52200031280518  4.34800004959106
Si  6.52200031280518  2.17400002479553  4.34800004959106
Si  6.52200031280518  6.52200031280518  4.34800004959106
C  5.43499994277954  1.08700001239777  1.08700001239777
C  1.08700001239777  5.43499994277954  1.08700001239777
C  1.08700001239777  1.08700001239777  5.43499994277954
C  5.43499994277954  5.43499994277954  1.08700001239777
C  1.08700001239777  5.43499994277954  5.43499994277954
C  5.43499994277954  1.08700001239777  5.43499994277954
C  5.43499994277954  5.43499994277954  5.43499994277954
C  5.43499994277954  3.26099991798401  3.26099991798401
C  1.08700001239777  7.60900020599365  3.26099991798401
C  1.08700001239777  3.26099991798401  7.60900020599365
C  5.43499994277954  7.60900020599365  3.26099991798401
C  1.08700001239777  7.60900020599365  7.60900020599365
C  5.43499994277954  3.26099991798401  7.60900020599365
C  5.43499994277954  7.60900020599365  7.60900020599365
C  7.60900020599365  1.08700001239777  3.26099991798401
C  3.26099991798401  5.43499994277954  3.26099991798401
C  3.26099991798401  1.08700001239777  7.60900020599365
C  7.60900020599365  5.43499994277954  3.26099991798401
C  3.26099991798401  5.43499994277954  7.60900020599365
C  7.60900020599365  1.08700001239777  7.60900020599365
C  7.60900020599365  5.43499994277954  7.60900020599365
C  7.60900020599365  3.26099991798401  1.08700001239777
C  3.26099991798401  7.60900020599365  1.08700001239777
C  3.26099991798401  3.26099991798401  5.43499994277954
C  7.60900020599365  7.60900020599365  1.08700001239777
C  3.26099991798401  7.60900020599365  5.43499994277954
C  7.60900020599365  3.26099991798401  5.43499994277954
C  7.60900020599365  7.60900020599365  5.43499994277954
Si  0  0  8.69600009918213
Si  0  4.34800004959106  8.69600009918213
Si  4.34800004959106  0  8.69600009918213
Si  4.34800004959106  4.34800004959106  8.69600009918213
Si  0  2.17400002479553  10.8699998855591
Si  0  6.52200031280518  10.8699998855591
Si  4.34800004959106  2.17400002479553  10.8699998855591
Si  4.34800004959106  6.52200031280518  10.8699998855591
Si  2.17400002479553  0  10.8699998855591
Si  2.17400002479553  4.34800004959106  10.8699998855591
Si  6.52200031280518  0  10.8699998855591
Si  6.52200031280518  4.34800004959106  10.8699998855591
Si  2.17400002479553  2.17400002479553  8.69600009918213
Si  2.17400002479553  6.52200031280518  8.69600009918213
Si  6.52200031280518  2.17400002479553  8.69600009918213
Si  6.52200031280518  6.52200031280518  8.69600009918213
C  1.08700001239777  1.08700001239777  9.78299999237061
C  1.08700001239777  5.43499994277954  9.78299999237061
C  5.43499994277954  1.08700001239777  9.78299999237061
C  5.43499994277954  5.43499994277954  9.78299999237061
C  1.08700001239777  3.26099991798401  11.9569997787476
C  1.08700001239777  7.60900020599365  11.9569997787476
C  5.43499994277954  3.26099991798401  11.9569997787476
C  5.43499994277954  7.60900020599365  11.9569997787476
C  3.26099991798401  1.08700001239777  11.9569997787476
C  3.26099991798401  5.43499994277954  11.9569997787476
C  7.60900020599365  1.08700001239777  11.9569997787476
C  7.60900020599365  5.43499994277954  11.9569997787476
C  3.26099991798401  3.26099991798401  9.78299999237061
C  3.26099991798401  7.60900020599365  9.78299999237061
C  7.60900020599365  3.26099991798401  9.78299999237061
C  7.60900020599365  7.60900020599365  9.78299999237061
Si  0  8.69600009918213  0
Si  4.34800004959106  8.69600009918213  0
Si  0  8.69600009918213  4.34800004959106
Si  4.34800004959106  8.69600009918213  4.34800004959106
Si  0  10.8699998855591  2.17400002479553
Si  4.34800004959106  10.8699998855591  2.17400002479553
Si  0  10.8699998855591  6.52200031280518
Si  4.34800004959106  10.8699998855591  6.52200031280518
Si  2.17400002479553  8.69600009918213  2.17400002479553
Si  6.52200031280518  8.69600009918213  2.17400002479553
Si  2.17400002479553  8.69600009918213  6.52200031280518
Si  6.52200031280518  8.69600009918213  6.52200031280518
Si  2.17400002479553  10.8699998855591  0
Si  6.52200031280518  10.8699998855591  0
Si  2.17400002479553  10.8699998855591  4.34800004959106
Si  6.52200031280518  10.8699998855591  4.34800004959106
C  1.08700001239777  9.78299999237061  1.08700001239777
C  5.43499994277954  9.78299999237061  1.08700001239777
C  1.08700001239777  9.78299999237061  5.43499994277954
C  5.43499994277954  9.78299999237061  5.43499994277954
C  1.08700001239777  11.9569997787476  3.26099991798401
C  5.43499994277954  11.9569997787476  3.26099991798401
C  1.08700001239777  11.9569997787476  7.60900020599365
C  5.43499994277954  11.9569997787476  7.60900020599365
C  3.26099991798401  9.78299999237061  3.26099991798401
C  7.60900020599365  9.78299999237061  3.26099991798401
C  3.26099991798401  9.78299999237061  7.60900020599365
C  7.60900020599365  9.78299999237061  7.60900020599365
C  3.26099991798401  11.9569997787476  1.08700001239777
C  7.60900020599365  11.9569997787476  1.08700001239777
C  3.26099991798401  11.9569997787476  5.43499994277954
C  7.60900020599365  11.9569997787476  5.43499994277954
Si  0  8.69600009918213  8.69600009918213
Si  4.34800004959106  8.69600009918213  8.69600009918213
Si  0  10.8699998855591  10.8699998855591
Si  4.34800004959106  10.8699998855591  10.8699998855591
Si  2.17400002479553  8.69600009918213  10.8699998855591
Si  6.52200031280518  8.69600009918213  10.8699998855591
Si  2.17400002479553  10.8699998855591  8.69600009918213
Si  6.52200031280518  10.8699998855591  8.69600009918213
C  1.08700001239777  9.78299999237061  9.78299999237061
C  5.43499994277954  9.78299999237061  9.78299999237061
C  1.08700001239777  11.9569997787476  11.9569997787476
C  5.43499994277954  11.9569997787476  11.9569997787476
C  3.26099991798401  9.78299999237061  11.9569997787476
C  7.60900020599365  9.78299999237061  11.9569997787476
C  3.26099991798401  11.9569997787476  9.78299999237061
C  7.60900020599365  11.9569997787476  9.78299999237061
Si  8.69600009918213  0  0
Si  8.69600009918213  4.34800004959106  0
Si  8.69600009918213  0  4.34800004959106
Si  8.69600009918213  4.34800004959106  4.34800004959106
Si  8.69600009918213  2.17400002479553  2.17400002479553
Si  8.69600009918213  6.52200031280518  2.17400002479553
Si  8.69600009918213  2.17400002479553  6.52200031280518
Si  8.69600009918213  6.52200031280518  6.52200031280518
Si  10.8699998855591  0  2.17400002479553
Si  10.8699998855591  4.34800004959106  2.17400002479553
Si  10.8699998855591  0  6.52200031280518
Si  10.8699998855591  4.34800004959106  6.52200031280518
Si  10.8699998855591  2.17400002479553  0
Si  10.8699998855591  6.52200031280518  0
Si  10.8699998855591  2.17400002479553  4.34800004959106
Si  10.8699998855591  6.52200031280518  4.34800004959106
C  9.78299999237061  1.08700001239777  1.08700001239777
C  9.78299999237061  5.43499994277954  1.08700001239777
C  9.78299999237061  1.08700001239777  5.43499994277954
C  9.78299999237061  5.43499994277954  5.43499994277954
C  9.78299999237061  3.26099991798401  3.26099991798401
C  9.78299999237061  7.60900020599365  3.26099991798401
C  9.78299999237061  3.26099991798401  7.60900020599365
C  9.78299999237061  7.60900020599365  7.60900020599365
C  11.9569997787476  1.08700001239777  3.26099991798401
C  11.9569997787476  5.43499994277954  3.26099991798401
C  11.9569997787476  1.08700001239777  7.60900020599365
C  11.9569997787476  5.43499994277954  7.60900020599365
C  11.9569997787476  3.26099991798401  1.08700001239777
C  11.9569997787476  7.60900020599365  1.08700001239777
C  11.9569997787476  3.26099991798401  5.43499994277954
C  11.9569997787476  7.60900020599365  5.43499994277954
Si  8.69600009918213  0  8.69600009918213
Si  8.69600009918213  4.34800004959106  8.69600009918213
Si  8.69600009918213  2.17400002479553  10.8699998855591
Si  8.69600009918213  6.52200031280518  10.8699998855591
Si  10.8699998855591  0  10.8699998855591
Si  10.8699998855591  4.34800004959106  10.8699998855591
Si  10.8699998855591  2.17400002479553  8.69600009918213
Si  10.8699998855591  6.52200031280518  8.69600009918213
C  9.78299999237061  1.08700001239777  9.78299999237061
C  9.78299999237061  5.43499994277954  9.78299999237061
C  9.78299999237061  3.26099991798401  11.9569997787476
C  9.78299999237061  7.60900020599365  11.9569997787476
C  11.9569997787476  1.08700001239777  11.9569997787476
C  11.9569997787476  5.43499994277954  11.9569997787476
C  11.9569997787476  3.26099991798401  9.78299999237061
C  11.9569997787476  7.60900020599365  9.78299999237061
Si  8.69600009918213  8.69600009918213  0
Si  8.69600009918213  8.69600009918213  4.34800004959106
Si  8.69600009918213  10.8699998855591  2.17400002479553
Si  8.69600009918213  10.8699998855591  6.52200031280518
Si  10.8699998855591  8.69600009918213  2.17400002479553
Si  10.8699998855591  8.69600009918213  6.52200031280518
Si  10.8699998855591  10.8699998855591  0
Si  10.8699998855591  10.8699998855591  4.34800004959106
C  9.78299999237061  9.78299999237061  1.08700001239777
C  9.78299999237061  9.78299999237061  5.43499994277954
C  9.78299999237061  11.9569997787476  3.26099991798401
C  9.78299999237061  11.9569997787476  7.60900020599365
C  11.9569997787476  9.78299999237061  3.26099991798401
C  11.9569997787476  9.78299999237061  7.60900020599365
C  11.9569997787476  11.9569997787476  1.08700001239777
C  11.9569997787476  11.9569997787476  5.43499994277954
Si  8.69600009918213  8.69600009918213  8.69600009918213
Si  8.69600009918213  10.8699998855591  10.8699998855591
Si  10.8699998855591  8.69600009918213  10.8699998855591
Si  10.8699998855591  10.8699998855591  8.69600009918213
C  9.78299999237061  9.78299999237061  9.78299999237061
C  9.78299999237061  11.9569997787476  11.9569997787476
C  11.9569997787476  9.78299999237061  11.9569997787476
C  11.9569997787476  11.9569997787476  9.78299999237061
Si  13.043999671936  0  0
Si  0  13.043999671936  0
Si  0  0  13.043999671936
Si  13.043999671936  13.043999671936  0
Si  0  13.043999671936  13.043999671936
Si  13.043999671936  0  13.043999671936
Si  13.043999671936  13.043999671936  13.043999671936
Si  13.043999671936  2.17400002479553  2.17400002479553
Si  2.17400002479553  13.043999671936  2.17400002479553
Si  2.17400002479553  2.17400002479553  13.043999671936
Si  4.34800004959106  13.043999671936  0
Si  4.34800004959106  0  13.043999671936
Si  4.34800004959106  13.043999671936  13.043999671936
Si  13.043999671936  4.34800004959106  0
Si  0  4.34800004959106  13.043999671936
Si  13.043999671936  4.34800004959106  13.043999671936
Si  13.043999671936  0  4.34800004959106
Si  0  13.043999671936  4.34800004959106
Si  13.043999671936  13.043999671936  4.34800004959106
Si  4.34800004959106  4.34800004959106  13.043999671936
Si  13.043999671936  4.34800004959106  4.34800004959106
Si  4.34800004959106  13.043999671936  4.34800004959106
Si  13.043999671936  6.52200031280518  2.17400002479553
Si  13.043999671936  2.17400002479553  6.52200031280518
Si  13.043999671936  6.52200031280518  6.52200031280518
Si  6.52200031280518  13.043999671936  2.17400002479553
Si  2.17400002479553  13.043999671936  6.52200031280518
Si  6.52200031280518  13.043999671936  6.52200031280518
Si  6.52200031280518  2.17400002479553  13.043999671936
Si  2.17400002479553  6.52200031280518  13.043999671936
Si  6.52200031280518  6.52200031280518  13.043999671936
Si  13.043999671936  0  8.69600009918213
Si  0  13.043999671936  8.69600009918213
Si  13.043999671936  13.043999671936  8.69600009918213
Si  13.043999671936  4.34800004959106  8.69600009918213
Si  4.34800004959106  13.043999671936  8.69600009918213
Si  13.043999671936  2.17400002479553  10.8699998855591
Si  13.043999671936  6.52200031280518  10.8699998855591
Si  2.17400002479553  13.043999671936  10.8699998855591
Si  6.52200031280518  13.043999671936  10.8699998855591
Si  13.043999671936  8.69600009918213  0
Si  0  8.69600009918213  13.043999671936
Si  13.043999671936  8.69600009918213  13.043999671936
Si  4.34800004959106  8.69600009918213  13.043999671936
Si  13.043999671936  8.69600009918213  4.34800004959106
Si  13.043999671936  10.8699998855591  2.17400002479553
Si  13.043999671936  10.8699998855591  6.52200031280518
Si  2.17400002479553  10.8699998855591  13.043999671936
Si  6.52200031280518  10.8699998855591  13.043999671936
Si  13.043999671936  8.69600009918213  8.69600009918213
Si  13.043999671936  10.8699998855591  10.8699998855591
Si  8.69600009918213  13.043999671936  0
Si  8.69600009918213  0  13.043999671936
Si  8.69600009918213  13.043999671936  13.043999671936
Si  8.69600009918213  4.34800004959106  13.043999671936
Si  8.69600009918213  13.043999671936  4.34800004959106
Si  10.8699998855591  13.043999671936  2.17400002479553
Si  10.8699998855591  13.043999671936  6.52200031280518
Si  10.8699998855591  2.17400002479553  13.043999671936
Si  10.8699998855591  6.52200031280518  13.043999671936
Si  8.69600009918213  13.043999671936  8.69600009918213
Si  10.8699998855591  13.043999671936  10.8699998855591
Si  8.69600009918213  8.69600009918213  13.043999671936
Si  10.8699998855591  10.8699998855591  13.043999671936
